* SPICE export by:      S-Edit 2020.1.4
* Export time:          Thu Nov 19 17:21:00 2020
* Design path:          /home/NIS/projects/XT018-19/A0/work/tt18-pmrudula/lib.defs
* Library:              my_lib
* Cell:                 res_test
* Testbench:            Spice
* View:                 schematic
* Export as:            subcircuit definition
* Export mode:          hierarchical
* Exclude empty:        no
* Exclude .model:       no
* Exclude .hdl:         no
* Exclude .end:         no
* Expand paths:         no
* Wrap lines:           no
* Exclude simulator commands:  no
* Exclude global pins:         no
* Exclude instance locations:  no
* Control property name(s):    CDL

*************** Subcircuits ***************
.subckt res_test A B 
RR1 A B 1696.58 $[rnp1] $w=2e-06 $l=1e-05 m=1 $ $x=930 $y=620 $w=20 $h=60
.ends



