** CALIBRE LAYOUT NETLIST **
** CALIBRE VERSION: v2020.2_14.12    Thu Apr 2 15:39:27 PDT 2020
** LAYOUT NAME: mim_cap_test.calibre.db (mim_cap_test)
** NETLIST FILE: netlistLAYOUT
** GENERATED: Wed Dec  9 11:47:58 2020


.SUBCKT mim_cap_test A B 
CC0 A B CMMH4 
.ENDS
