** CALIBRE SOURCE NETLIST **
** CALIBRE VERSION: v2020.2_14.12    Thu Apr 2 15:39:27 PDT 2020
** SOURCE NAME: /home/NIS/projects/XT018-19/A0/work/tt18-pmrudula/verification/LVS/ser_45_test/ser_45_test.src.net (ser_45_test)
** NETLIST FILE: netlistSOURCE
** GENERATED: Wed Dec  2 18:35:29 2020


.SUBCKT ser_45_test C D 
RRR2 C D RNP1 
.ENDS
