** CALIBRE LAYOUT NETLIST **
** CALIBRE VERSION: v2020.2_14.12    Thu Apr 2 15:39:27 PDT 2020
** LAYOUT NAME: ser_45_test.calibre.db (ser_45_test)
** NETLIST FILE: netlistLAYOUT
** GENERATED: Wed Dec  2 18:35:29 2020


.SUBCKT ser_45_test C D 
RR0 C D RNP1 
.ENDS
