** CALIBRE SOURCE NETLIST **
** CALIBRE VERSION: v2020.2_14.12    Thu Apr 2 15:39:27 PDT 2020
** SOURCE NAME: /home/NIS/projects/XT018-19/A0/work/tt18-pmrudula/verification/res_macro/res_test.src.net (res_test)
** NETLIST FILE: netlistSOURCE
** GENERATED: Wed Dec  2 15:22:14 2020


.SUBCKT res_test A B 
RRR1 A B RNP1 
.ENDS
