* SPICE NETLIST
***************************************

.SUBCKT ne5_m2 B D G S
** N=4 EP=4 IP=0 FDC=2
M0 S G D B ne5 L=5e-07 W=2e-06 AD=5.4e-13 AS=9.6e-13 PD=2.54e-06 PS=4.96e-06 $X=27195 $Y=-1380 $D=0
M1 D G S B ne5 L=5e-07 W=2e-06 AD=9.6e-13 AS=5.4e-13 PD=4.96e-06 PS=2.54e-06 $X=28235 $Y=-1380 $D=0
.ENDS
***************************************
