** CALIBRE SOURCE NETLIST **
** CALIBRE VERSION: v2020.2_14.12    Thu Apr 2 15:39:27 PDT 2020
** SOURCE NAME: /home/NIS/projects/XT018-19/A0/work/tt18-pmrudula/verification/LVS/ne5_m2/ne5_m2.src.net (ne5_m2)
** NETLIST FILE: netlistSOURCE
** GENERATED: Thu Mar 25 16:47:01 2021


.SUBCKT ne5_m2 B D G S 
MMM1 D G S B NE5 
.ENDS
