* SPICE NETLIST
***************************************

.SUBCKT rnw_test A B C
** N=178 EP=3 IP=0 FDC=1
R0 A B L=1e-05 W=2e-06 $SUB=177 $[rnw5] $X=-605 $Y=-1145 $D=0
.ENDS
***************************************
