** CALIBRE LAYOUT NETLIST **
** CALIBRE VERSION: v2020.2_14.12    Thu Apr 2 15:39:27 PDT 2020
** LAYOUT NAME: inv_test.calibre.db (inv_test)
** NETLIST FILE: netlistLAYOUT
** GENERATED: Tue Jan  5 12:14:13 2021


.SUBCKT inv_test IN GND VDD OUT 
MM0 OUT IN VDD VDD PE 
MM1 OUT IN GND GND NE 
.ENDS
