* SPICE export by:      S-Edit 2020.1.4
* Export time:          Fri Nov 27 12:49:03 2020
* Design path:          /home/NIS/projects/XT018-19/A0/work/tt18-pmrudula/lib.defs
* Library:              my_lib
* Cell:                 ser_res_test
* Testbench:            Spice
* View:                 schematic
* Export as:            subcircuit definition
* Export mode:          hierarchical
* Exclude empty:        no
* Exclude .model:       no
* Exclude .hdl:         no
* Exclude .end:         no
* Expand paths:         no
* Wrap lines:           no
* Exclude simulator commands:  no
* Exclude global pins:         no
* Exclude instance locations:  no
* Control property name(s):    CDL

*************** Subcircuits ***************
.subckt ser_res_test A B 
RR1 A B 50001.4 $[rnp1] $w=2e-06 $l=0.00030762 m=1 $ $x=770 $y=580 $w=20 $h=60
.ends



