** CALIBRE SOURCE NETLIST **
** CALIBRE VERSION: v2020.2_14.12    Thu Apr 2 15:39:27 PDT 2020
** SOURCE NAME: /home/NIS/projects/XT018-19/A0/work/tt18-pmrudula/verification/LVS/pe_test/pe_test.src.net (pe_test)
** NETLIST FILE: netlistSOURCE
** GENERATED: Mon Dec  7 11:38:15 2020


.SUBCKT pe_test B D G S 
MMM1 D G S B PE 
.ENDS
