** CALIBRE LAYOUT NETLIST **
** CALIBRE VERSION: v2020.2_14.12    Thu Apr 2 15:39:27 PDT 2020
** LAYOUT NAME: ne5.calibre.db (ne5)
** NETLIST FILE: netlistLAYOUT
** GENERATED: Wed Dec  9 11:44:25 2020


.SUBCKT ne5 B S G D 
MM0 D G S B NE5 
.ENDS
