** CALIBRE SOURCE NETLIST **
** CALIBRE VERSION: v2020.2_14.12    Thu Apr 2 15:39:27 PDT 2020
** SOURCE NAME: /home/NIS/projects/XT018-19/A0/work/tt18-pmrudula/verification/LVS/ne5/ne5.src.net (ne5)
** NETLIST FILE: netlistSOURCE
** GENERATED: Wed Dec  9 11:44:25 2020


.SUBCKT ne5 B D G S 
MMM1 D G S B NE5 
.ENDS
