** CALIBRE LAYOUT NETLIST **
** CALIBRE VERSION: v2020.2_14.12    Thu Apr 2 15:39:27 PDT 2020
** LAYOUT NAME: ne5_mul2.calibre.db (ne5_mul2)
** NETLIST FILE: netlistLAYOUT
** GENERATED: Thu Mar 25 19:31:33 2021


.SUBCKT ne5_mul2 B G D S 
MM0 S G D B NE5 
.ENDS
