** CALIBRE SOURCE NETLIST **
** CALIBRE VERSION: v2020.2_14.12    Thu Apr 2 15:39:27 PDT 2020
** SOURCE NAME: /home/NIS/projects/XT018-19/A0/work/tt18-pmrudula/verification/LVS/ne5_mul2/ne5_mul2.src.net (ne5_mul2)
** NETLIST FILE: netlistSOURCE
** GENERATED: Thu Mar 25 19:31:33 2021


.SUBCKT ne5_mul2 B D G S 
MMM1 D G S B NE5 
.ENDS
